25113190
  -OEChem-10021005352D

 80 82  0     1  0  0  0  0  0999 V2000
   21.4481    2.9158    0.0000 S   0  0  0  0  0  0  0  0  0  0  0  0
    5.3548    3.3174    0.0000 P   0  0  0  0  0  0  0  0  0  0  0  0
    8.4752    2.0777    0.0000 P   0  0  3  0  0  0  0  0  0  0  0  0
   10.1980    2.2557    0.0000 P   0  0  3  0  0  0  0  0  0  0  0  0
    5.9405    0.3132    0.0000 O   0  0  0  0  0  0  0  0  0  0  0  0
    4.6844    2.5754    0.0000 O   0  0  0  0  0  0  0  0  0  0  0  0
    3.4026    0.8176    0.0000 O   0  0  0  0  0  0  0  0  0  0  0  0
    7.6651    1.4913    0.0000 O   0  0  0  0  0  0  0  0  0  0  0  0
   11.1109    1.8474    0.0000 O   0  0  0  0  0  0  0  0  0  0  0  0
    9.2852    2.6640    0.0000 O   0  0  0  0  0  0  0  0  0  0  0  0
   13.8494    0.6225    0.0000 O   0  0  0  0  0  0  0  0  0  0  0  0
    6.0252    4.0594    0.0000 O   0  5  0  0  0  0  0  0  0  0  0  0
    4.6128    3.9878    0.0000 O   0  5  0  0  0  0  0  0  0  0  0  0
    6.0968    2.6470    0.0000 O   0  0  0  0  0  0  0  0  0  0  0  0
    9.0615    1.2676    0.0000 O   0  5  0  0  0  0  0  0  0  0  0  0
    7.8888    2.8877    0.0000 O   0  0  0  0  0  0  0  0  0  0  0  0
   14.4538    3.1982    0.0000 O   0  0  0  0  0  0  0  0  0  0  0  0
   10.6063    3.1686    0.0000 O   0  5  0  0  0  0  0  0  0  0  0  0
    9.7897    1.3429    0.0000 O   0  0  0  0  0  0  0  0  0  0  0  0
   17.8996    3.5544    0.0000 O   0  0  0  0  0  0  0  0  0  0  0  0
    4.6783   -0.9447    0.0000 N   0  0  0  0  0  0  0  0  0  0  0  0
    4.6783   -2.5542    0.0000 N   0  0  0  0  0  0  0  0  0  0  0  0
    2.8660   -0.7494    0.0000 N   0  0  0  0  0  0  0  0  0  0  0  0
    2.0000   -2.2494    0.0000 N   0  0  0  0  0  0  0  0  0  0  0  0
   15.4695    1.7952    0.0000 N   0  0  0  0  0  0  0  0  0  0  0  0
    2.8660   -3.7494    0.0000 N   0  0  0  0  0  0  0  0  0  0  0  0
   18.9152    2.1514    0.0000 N   0  0  0  0  0  0  0  0  0  0  0  0
    4.9917    1.6239    0.0000 C   0  0  1  0  0  0  0  0  0  0  0  0
    4.4026    0.8159    0.0000 C   0  0  2  0  0  0  0  0  0  0  0  0
    5.9422    1.3132    0.0000 C   0  0  1  0  0  0  0  0  0  0  0  0
    4.9889    0.0058    0.0000 C   0  0  1  0  0  0  0  0  0  0  0  0
    6.7523    1.8996    0.0000 C   0  0  0  0  0  0  0  0  0  0  0  0
    3.7320   -1.2494    0.0000 C   0  0  0  0  0  0  0  0  0  0  0  0
    5.2619   -1.7494    0.0000 C   0  0  0  0  0  0  0  0  0  0  0  0
   12.8337    2.0255    0.0000 C   0  0  0  0  0  0  0  0  0  0  0  0
    3.7320   -2.2494    0.0000 C   0  0  0  0  0  0  0  0  0  0  0  0
   13.7466    1.6172    0.0000 C   0  0  2  0  0  0  0  0  0  0  0  0
   11.9209    2.4338    0.0000 C   0  0  0  0  0  0  0  0  0  0  0  0
   13.2421    2.9383    0.0000 C   0  0  0  0  0  0  0  0  0  0  0  0
   12.4254    1.1126    0.0000 C   0  0  0  0  0  0  0  0  0  0  0  0
    2.8660   -2.7494    0.0000 C   0  0  0  0  0  0  0  0  0  0  0  0
   14.5566    2.2035    0.0000 C   0  0  0  0  0  0  0  0  0  0  0  0
    2.0000   -1.2494    0.0000 C   0  0  0  0  0  0  0  0  0  0  0  0
   16.2795    2.3816    0.0000 C   0  0  0  0  0  0  0  0  0  0  0  0
   17.1923    1.9733    0.0000 C   0  0  0  0  0  0  0  0  0  0  0  0
   18.0024    2.5597    0.0000 C   0  0  0  0  0  0  0  0  0  0  0  0
   19.7252    2.7377    0.0000 C   0  0  0  0  0  0  0  0  0  0  0  0
   20.6381    2.3294    0.0000 C   0  0  0  0  0  0  0  0  0  0  0  0
    5.4309    2.0615    0.0000 H   0  0  0  0  0  0  0  0  0  0  0  0
    4.1220    1.3688    0.0000 H   0  0  0  0  0  0  0  0  0  0  0  0
    6.4942    1.0308    0.0000 H   0  0  0  0  0  0  0  0  0  0  0  0
    5.4266   -0.4333    0.0000 H   0  0  0  0  0  0  0  0  0  0  0  0
    7.0999    2.4130    0.0000 H   0  0  0  0  0  0  0  0  0  0  0  0
    6.3070    2.3310    0.0000 H   0  0  0  0  0  0  0  0  0  0  0  0
    3.0935    1.3551    0.0000 H   0  0  0  0  0  0  0  0  0  0  0  0
    5.8819   -1.7494    0.0000 H   0  0  0  0  0  0  0  0  0  0  0  0
   13.2444    1.2536    0.0000 H   0  0  0  0  0  0  0  0  0  0  0  0
   12.2685    2.9472    0.0000 H   0  0  0  0  0  0  0  0  0  0  0  0
   11.4757    2.8652    0.0000 H   0  0  0  0  0  0  0  0  0  0  0  0
   11.8595    1.3658    0.0000 H   0  0  0  0  0  0  0  0  0  0  0  0
   13.8080    2.6852    0.0000 H   0  0  0  0  0  0  0  0  0  0  0  0
   13.4952    3.5043    0.0000 H   0  0  0  0  0  0  0  0  0  0  0  0
   12.6761    3.1915    0.0000 H   0  0  0  0  0  0  0  0  0  0  0  0
   12.1723    0.5467    0.0000 H   0  0  0  0  0  0  0  0  0  0  0  0
   12.9914    0.8595    0.0000 H   0  0  0  0  0  0  0  0  0  0  0  0
    1.4631   -0.9394    0.0000 H   0  0  0  0  0  0  0  0  0  0  0  0
   14.4154    0.3693    0.0000 H   0  0  0  0  0  0  0  0  0  0  0  0
   15.5332    1.1785    0.0000 H   0  0  0  0  0  0  0  0  0  0  0  0
    2.3291   -4.0594    0.0000 H   0  0  0  0  0  0  0  0  0  0  0  0
    3.4030   -4.0594    0.0000 H   0  0  0  0  0  0  0  0  0  0  0  0
   16.6271    2.8950    0.0000 H   0  0  0  0  0  0  0  0  0  0  0  0
   15.8342    2.8131    0.0000 H   0  0  0  0  0  0  0  0  0  0  0  0
   16.8447    1.4599    0.0000 H   0  0  0  0  0  0  0  0  0  0  0  0
   17.6376    1.5418    0.0000 H   0  0  0  0  0  0  0  0  0  0  0  0
   18.9789    1.5346    0.0000 H   0  0  0  0  0  0  0  0  0  0  0  0
   20.0728    3.2511    0.0000 H   0  0  0  0  0  0  0  0  0  0  0  0
   19.2800    3.1692    0.0000 H   0  0  0  0  0  0  0  0  0  0  0  0
   20.2905    1.8160    0.0000 H   0  0  0  0  0  0  0  0  0  0  0  0
   21.0833    1.8980    0.0000 H   0  0  0  0  0  0  0  0  0  0  0  0
   22.0141    2.6627    0.0000 H   0  0  0  0  0  0  0  0  0  0  0  0
  1 48  1  0  0  0  0
  1 80  1  0  0  0  0
  2  6  1  0  0  0  0
  2 12  1  0  0  0  0
  2 13  1  0  0  0  0
  2 14  2  0  0  0  0
  3  8  1  0  0  0  0
  3 10  1  0  0  0  0
  3 15  1  0  0  0  0
  3 16  2  0  0  0  0
  4  9  1  0  0  0  0
  4 10  1  0  0  0  0
  4 18  1  0  0  0  0
  4 19  2  0  0  0  0
  5 30  1  0  0  0  0
  5 31  1  0  0  0  0
 28  6  1  6  0  0  0
 29  7  1  6  0  0  0
  7 55  1  0  0  0  0
  8 32  1  0  0  0  0
  9 38  1  0  0  0  0
 37 11  1  6  0  0  0
 11 67  1  0  0  0  0
 17 42  2  0  0  0  0
 20 46  2  0  0  0  0
 31 21  1  1  0  0  0
 21 33  1  0  0  0  0
 21 34  1  0  0  0  0
 22 34  2  0  0  0  0
 22 36  1  0  0  0  0
 23 33  2  0  0  0  0
 23 43  1  0  0  0  0
 24 41  1  0  0  0  0
 24 43  2  0  0  0  0
 25 42  1  0  0  0  0
 25 44  1  0  0  0  0
 25 68  1  0  0  0  0
 26 41  1  0  0  0  0
 26 69  1  0  0  0  0
 26 70  1  0  0  0  0
 27 46  1  0  0  0  0
 27 47  1  0  0  0  0
 27 75  1  0  0  0  0
 28 29  1  0  0  0  0
 28 30  1  0  0  0  0
 28 49  1  0  0  0  0
 29 31  1  0  0  0  0
 29 50  1  0  0  0  0
 30 32  1  1  0  0  0
 30 51  1  0  0  0  0
 31 52  1  0  0  0  0
 32 53  1  0  0  0  0
 32 54  1  0  0  0  0
 33 36  1  0  0  0  0
 34 56  1  0  0  0  0
 35 37  1  0  0  0  0
 35 38  1  0  0  0  0
 35 39  1  0  0  0  0
 35 40  1  0  0  0  0
 36 41  2  0  0  0  0
 37 42  1  0  0  0  0
 37 57  1  0  0  0  0
 38 58  1  0  0  0  0
 38 59  1  0  0  0  0
 39 61  1  0  0  0  0
 39 62  1  0  0  0  0
 39 63  1  0  0  0  0
 40 60  1  0  0  0  0
 40 64  1  0  0  0  0
 40 65  1  0  0  0  0
 43 66  1  0  0  0  0
 44 45  1  0  0  0  0
 44 71  1  0  0  0  0
 44 72  1  0  0  0  0
 45 46  1  0  0  0  0
 45 73  1  0  0  0  0
 45 74  1  0  0  0  0
 47 48  1  0  0  0  0
 47 76  1  0  0  0  0
 47 77  1  0  0  0  0
 48 78  1  0  0  0  0
 48 79  1  0  0  0  0
M  CHG  4  12  -1  13  -1  15  -1  18  -1
M  END
> <PUBCHEM_COMPOUND_CID>
25113190

> <PUBCHEM_COMPOUND_CANONICALIZED>
1

> <PUBCHEM_CACTVS_COMPLEXITY>
1240

> <PUBCHEM_CACTVS_HBOND_ACCEPTOR>
20

> <PUBCHEM_CACTVS_HBOND_DONOR>
5

> <PUBCHEM_CACTVS_ROTATABLE_BOND>
17

> <PUBCHEM_CACTVS_SUBSKEYS>
AAADcfB7vgNAAAAAAAAAAAAAAAAAAWJAAAAsAAAAAAAAAFgB+AAAHgQQCCAADhzl1waH8L/MFxSoQQdxdIKAgC0REKABUKFoVBCDWBpAyEAeRAgPFgLTACDyMAIJAAAAAAAAAAAAAAAAAAAAAAAAAAAAAA==

> <PUBCHEM_IUPAC_OPENEYE_NAME>
[(2R,3S,4R,5R)-5-(6-aminopurin-9-yl)-4-hydroxy-2-[[[[(3R)-3-hydroxy-2,2-dimethyl-4-oxo-4-[[3-oxo-3-(2-sulfanylethylamino)propyl]amino]butoxy]-oxido-phosphoryl]oxy-oxido-phosphoryl]oxymethyl]tetrahydrofuran-3-yl] phosphate

> <PUBCHEM_IUPAC_CAS_NAME>
[(2R,3S,4R,5R)-5-(6-aminopurin-9-yl)-4-hydroxy-2-[[[[(3R)-3-hydroxy-4-[[3-(2-mercaptoethylamino)-3-oxopropyl]amino]-2,2-dimethyl-4-oxobutoxy]-oxidophosphoryl]oxy-oxidophosphoryl]oxymethyl]-3-oxolanyl] phosphate

> <PUBCHEM_IUPAC_NAME>
[(2R,3S,4R,5R)-5-(6-aminopurin-9-yl)-4-hydroxy-2-[[[[(3R)-3-hydroxy-2,2-dimethyl-4-oxo-4-[[3-oxo-3-(2-sulfanylethylamino)propyl]amino]butoxy]-oxidophosphoryl]oxy-oxidophosphoryl]oxymethyl]oxolan-3-yl] phosphate

> <PUBCHEM_IUPAC_SYSTEMATIC_NAME>
[(2R,3S,4R,5R)-5-(6-aminopurin-9-yl)-2-[[[[(3R)-2,2-dimethyl-3-oxidanyl-4-oxidanylidene-4-[[3-oxidanylidene-3-(2-sulfanylethylamino)propyl]amino]butoxy]-oxidanidyl-phosphoryl]oxy-oxidanidyl-phosphoryl]oxymethyl]-4-oxidanyl-oxolan-3-yl] phosphate

> <PUBCHEM_IUPAC_TRADITIONAL_NAME>
[(2R,3S,4R,5R)-5-adenin-9-yl-4-hydroxy-2-[[[[(3R)-3-hydroxy-4-keto-4-[[3-keto-3-(2-mercaptoethylamino)propyl]amino]-2,2-dimethyl-butoxy]-oxido-phosphoryl]oxy-oxido-phosphoryl]oxymethyl]tetrahydrofuran-3-yl] phosphate

> <PUBCHEM_NIST_INCHI>
InChI=1S/C21H36N7O16P3S/c1-21(2,16(31)19(32)24-4-3-12(29)23-5-6-48)8-41-47(38,39)44-46(36,37)40-7-11-15(43-45(33,34)35)14(30)20(42-11)28-10-27-13-17(22)25-9-26-18(13)28/h9-11,14-16,20,30-31,48H,3-8H2,1-2H3,(H,23,29)(H,24,32)(H,36,37)(H,38,39)(H2,22,25,26)(H2,33,34,35)/p-4/t11-,14-,15-,16+,20-/m1/s1

> <PUBCHEM_NIST_INCHIKEY>
RGJOEKWQDUBAIZ-IBOSZNHHSA-J

> <PUBCHEM_XLOGP3>
-6.1

> <PUBCHEM_EXACT_MASS>
763.083908

> <PUBCHEM_MOLECULAR_FORMULA>
C21H32N7O16P3S-4

> <PUBCHEM_MOLECULAR_WEIGHT>
763.502363

> <PUBCHEM_OPENEYE_CAN_SMILES>
CC(C)(COP(=O)([O-])OP(=O)([O-])OCC1C(C(C(O1)N2C=NC3=C2N=CN=C3N)O)OP(=O)([O-])[O-])C(C(=O)NCCC(=O)NCCS)O

> <PUBCHEM_OPENEYE_ISO_SMILES>
CC(C)(COP(=O)([O-])OP(=O)([O-])OC[C@@H]1[C@H]([C@H]([C@@H](O1)N2C=NC3=C2N=CN=C3N)O)OP(=O)([O-])[O-])[C@H](C(=O)NCCC(=O)NCCS)O

> <PUBCHEM_CACTVS_TPSA>
359

> <PUBCHEM_MONOISOTOPIC_WEIGHT>
763.083908

> <PUBCHEM_TOTAL_CHARGE>
-4

> <PUBCHEM_HEAVY_ATOM_COUNT>
48

> <PUBCHEM_ATOM_DEF_STEREO_COUNT>
5

> <PUBCHEM_ATOM_UDEF_STEREO_COUNT>
0

> <PUBCHEM_BOND_DEF_STEREO_COUNT>
0

> <PUBCHEM_BOND_UDEF_STEREO_COUNT>
0

> <PUBCHEM_ISOTOPIC_ATOM_COUNT>
0

> <PUBCHEM_COMPONENT_COUNT>
1

> <PUBCHEM_CACTVS_TAUTO_COUNT>
12

> <PUBCHEM_COORDINATE_TYPE>
1
3

> <PUBCHEM_BONDANNOTATIONS>
37  11  6
31  21  5
21  33  8
21  34  8
22  34  8
22  36  8
23  33  8
23  43  8
24  41  8
24  43  8
30  32  5
33  36  8
36  41  8
28  6  6
29  7  6

$$$$

