154529
  -OEChem-10011018283D

 45 46  0     0  0  0  0  0  0999 V2000
    0.7016    3.5586    0.2481 S   0  0  0  0  0  0  0  0  0  0  0  0
    2.8329   -3.4386   -0.7778 F   0  0  0  0  0  0  0  0  0  0  0  0
    4.3696   -2.1038   -1.5269 F   0  0  0  0  0  0  0  0  0  0  0  0
    4.4498   -2.8037    0.5304 F   0  0  0  0  0  0  0  0  0  0  0  0
   -1.2007   -2.3572   -0.2127 O   0  0  0  0  0  0  0  0  0  0  0  0
    0.1903    4.6929    0.9948 O   0  0  0  0  0  0  0  0  0  0  0  0
    1.9475    3.6604   -0.4855 O   0  0  0  0  0  0  0  0  0  0  0  0
   -0.7146   -0.1752    0.5219 N   0  0  0  0  0  0  0  0  0  0  0  0
    0.7066    2.1858    1.2855 N   0  0  0  0  0  0  0  0  0  0  0  0
    2.7360    1.0994    0.8142 N   0  0  0  0  0  0  0  0  0  0  0  0
   -2.9808   -0.8982    0.3720 C   0  0  0  0  0  0  0  0  0  0  0  0
   -3.7695   -2.1465    0.7740 C   0  0  0  0  0  0  0  0  0  0  0  0
   -3.5362   -0.2738   -0.9100 C   0  0  0  0  0  0  0  0  0  0  0  0
   -5.2645   -1.8585    0.8827 C   0  0  0  0  0  0  0  0  0  0  0  0
   -5.0316    0.0100   -0.7972 C   0  0  0  0  0  0  0  0  0  0  0  0
   -5.8130   -1.2385   -0.3989 C   0  0  0  0  0  0  0  0  0  0  0  0
   -1.5336   -1.2458    0.1859 C   0  0  0  0  0  0  0  0  0  0  0  0
    0.6988   -0.1248    0.4760 C   0  0  0  0  0  0  0  0  0  0  0  0
    1.3874    1.0080    0.8417 C   0  0  0  0  0  0  0  0  0  0  0  0
    1.4011   -1.2368    0.0560 C   0  0  0  0  0  0  0  0  0  0  0  0
    2.7899   -1.1815    0.0141 C   0  0  0  0  0  0  0  0  0  0  0  0
   -0.5705    3.0810   -0.9001 C   0  0  0  0  0  0  0  0  0  0  0  0
    3.4039   -0.0006    0.3998 C   0  0  0  0  0  0  0  0  0  0  0  0
    3.5899   -2.3533   -0.4314 C   0  0  0  0  0  0  0  0  0  0  0  0
   -0.7901    4.1406   -1.9565 C   0  0  0  0  0  0  0  0  0  0  0  0
   -3.0774   -0.1698    1.1889 H   0  0  0  0  0  0  0  0  0  0  0  0
   -3.3998   -2.5328    1.7319 H   0  0  0  0  0  0  0  0  0  0  0  0
   -3.6233   -2.9489    0.0389 H   0  0  0  0  0  0  0  0  0  0  0  0
   -3.3568   -0.9437   -1.7614 H   0  0  0  0  0  0  0  0  0  0  0  0
   -3.0058    0.6590   -1.1372 H   0  0  0  0  0  0  0  0  0  0  0  0
   -5.8037   -2.7867    1.1034 H   0  0  0  0  0  0  0  0  0  0  0  0
   -5.4442   -1.1773    1.7236 H   0  0  0  0  0  0  0  0  0  0  0  0
   -5.4076    0.3908   -1.7535 H   0  0  0  0  0  0  0  0  0  0  0  0
   -5.1977    0.7978   -0.0522 H   0  0  0  0  0  0  0  0  0  0  0  0
   -6.8701   -0.9841   -0.2626 H   0  0  0  0  0  0  0  0  0  0  0  0
   -5.7632   -1.9745   -1.2107 H   0  0  0  0  0  0  0  0  0  0  0  0
   -1.1683    0.6829    0.8222 H   0  0  0  0  0  0  0  0  0  0  0  0
    0.9407   -2.1640   -0.2487 H   0  0  0  0  0  0  0  0  0  0  0  0
   -0.1664    2.0131    1.7994 H   0  0  0  0  0  0  0  0  0  0  0  0
   -1.4899    2.9140   -0.3312 H   0  0  0  0  0  0  0  0  0  0  0  0
   -0.2622    2.1475   -1.3784 H   0  0  0  0  0  0  0  0  0  0  0  0
    4.4846    0.1020    0.3875 H   0  0  0  0  0  0  0  0  0  0  0  0
    0.1222    4.3197   -2.5344 H   0  0  0  0  0  0  0  0  0  0  0  0
   -1.0920    5.0919   -1.5066 H   0  0  0  0  0  0  0  0  0  0  0  0
   -1.5763    3.8282   -2.6507 H   0  0  0  0  0  0  0  0  0  0  0  0
  1  6  2  0  0  0  0
  1  7  2  0  0  0  0
  1  9  1  0  0  0  0
  1 22  1  0  0  0  0
  2 24  1  0  0  0  0
  3 24  1  0  0  0  0
  4 24  1  0  0  0  0
  5 17  2  0  0  0  0
  8 17  1  0  0  0  0
  8 18  1  0  0  0  0
  8 37  1  0  0  0  0
  9 19  1  0  0  0  0
  9 39  1  0  0  0  0
 10 19  1  0  0  0  0
 10 23  2  0  0  0  0
 11 12  1  0  0  0  0
 11 13  1  0  0  0  0
 11 17  1  0  0  0  0
 11 26  1  0  0  0  0
 12 14  1  0  0  0  0
 12 27  1  0  0  0  0
 12 28  1  0  0  0  0
 13 15  1  0  0  0  0
 13 29  1  0  0  0  0
 13 30  1  0  0  0  0
 14 16  1  0  0  0  0
 14 31  1  0  0  0  0
 14 32  1  0  0  0  0
 15 16  1  0  0  0  0
 15 33  1  0  0  0  0
 15 34  1  0  0  0  0
 16 35  1  0  0  0  0
 16 36  1  0  0  0  0
 18 19  2  0  0  0  0
 18 20  1  0  0  0  0
 20 21  2  0  0  0  0
 20 38  1  0  0  0  0
 21 23  1  0  0  0  0
 21 24  1  0  0  0  0
 22 25  1  0  0  0  0
 22 40  1  0  0  0  0
 22 41  1  0  0  0  0
 23 42  1  0  0  0  0
 25 43  1  0  0  0  0
 25 44  1  0  0  0  0
 25 45  1  0  0  0  0
M  END
> <PUBCHEM_COMPOUND_CID>
154529

> <PUBCHEM_CONFORMER_RMSD>
0.8

> <PUBCHEM_CONFORMER_DIVERSEORDER>
1
59
87
148
149
78
186
106
133
23
60
146
82
76
58
188
108
113
32
150
187
38
169
14
177
93
140
20
73
152
85
123
118
56
53
7
50
166
120
48
183
129
19
157
167
18
128
161
15
114
96
16
181
13
176
134
94
25
182
41
164
26
101
5
135
79
75
69
62
9
107
39
156
163
67
145
63
80
2
55
126
151
165
143
91
178
28
175
97
112
174
74
184
8
137
88
57
71
33
158
35
11
144
100
185
17
72
3
104
98
37
77
90
122
34
92
31
81
30
155
125
12
49
54
51
136
46
153
102
110
147
24
66
117
61
172
119
10
86
99
138
27
160
154
142
84
52
44
29
45
170
141
4
116
171
89
173
36
179
124
40
65
22
159
6
139
43
130
105
64
168
180
21
70
111
121
131
103
127
115
132
83
109
95
162
47
68
42

> <PUBCHEM_MMFF94_PARTIAL_CHARGES>
23
1 1.33
10 -0.62
11 0.06
17 0.57
18 0.12
19 0.51
2 -0.34
20 -0.15
21 -0.14
22 0.11
23 0.16
24 1.16
3 -0.34
37 0.37
38 0.15
39 0.42
4 -0.34
42 0.15
5 -0.57
6 -0.65
7 -0.65
8 -0.55
9 -0.76

> <PUBCHEM_EFFECTIVE_ROTOR_COUNT>
8.2

> <PUBCHEM_PHARMACOPHORE_FEATURES>
8
1 10 acceptor
1 5 acceptor
1 6 acceptor
1 7 acceptor
1 8 donor
1 9 donor
6 10 18 19 20 21 23 rings
6 11 12 13 14 15 16 rings

> <PUBCHEM_HEAVY_ATOM_COUNT>
25

> <PUBCHEM_ATOM_DEF_STEREO_COUNT>
0

> <PUBCHEM_ATOM_UDEF_STEREO_COUNT>
0

> <PUBCHEM_BOND_DEF_STEREO_COUNT>
0

> <PUBCHEM_BOND_UDEF_STEREO_COUNT>
0

> <PUBCHEM_ISOTOPIC_ATOM_COUNT>
0

> <PUBCHEM_COMPONENT_COUNT>
1

> <PUBCHEM_CACTVS_TAUTO_COUNT>
4

> <PUBCHEM_CONFORMER_ID>
00025BA100000001

> <PUBCHEM_MMFF94_ENERGY>
45.4786

> <PUBCHEM_FEATURE_SELFOVERLAP>
40.616

> <PUBCHEM_SHAPE_FINGERPRINT>
10411042 1 18337389443414664722
10688039 33 18342457083832311886
116883 192 18338240474109609528
12156800 1 17756110691509500261
12403259 226 18412833490700974439
12422481 6 17836964142009194992
12788726 201 18128256898598873738
13052359 8 17691974077931932274
13134695 92 18335709325153744245
13540713 4 17825398637949067714
138480 1 18409730621162981777
13955234 65 18120930612410353643
14251757 5 18126563663787496741
14866123 147 17616249621116200603
15081414 286 18408884001462337657
15420108 30 17472159288248422768
15806764 133 18202286866900487695
17357779 13 18337687402496625285
1813 80 18041546031419193831
18785283 64 18054225428001677683
1979834 28 18123475969076030937
20645477 70 18260831492370728711
20739085 24 18189031196959285979
21049683 118 9582377315082747015
21049683 271 18269261392533718852
21285901 2 18337112357894089038
21478907 32 18193557998010584226
21641784 216 18198882864631629724
221357 26 18410580608703373135
22182313 1 18190483703833666136
23419403 2 17388853973567354456
23559900 14 18337958883569936235
266924 78 17690245276038000779
3380486 145 17535511185550954680
38695281 34 17833831564988815568
4409770 3 17909832376985237753
5281201 14 18340770356160665295
6287921 2 17981888545436713687
6443956 14 18410855451686147674
7164475 11 18123463045677679646
81228 2 18267583683766094368
9709674 26 18268430127526612163
9981440 41 17399809198241454481

> <PUBCHEM_SHAPE_MULTIPOLES>
463.97
9.59
5.55
1.21
6.6
-2.21
2.21
-2.68
-4.29
3.39
-1
7
21.84
-26.76

> <PUBCHEM_SHAPE_SELFOVERLAP>
951.867

> <PUBCHEM_SHAPE_VOLUME>
269

> <PUBCHEM_COORDINATE_TYPE>
2
5
255

$$$$

